<routes>
            <vType accel="1.0" decel="4.5" id="standard_car" length="5.0" minGap="2.5" maxSpeed="25" sigma="0.5" /> 

            <route id="W_N" edges="W2TL TL2N"/>
            <route id="W_E" edges="W2TL TL2E"/>
            <route id="W_S" edges="W2TL TL2S"/>
            <route id="N_W" edges="N2TL TL2W"/>
            <route id="N_E" edges="N2TL TL2E"/>
            <route id="N_S" edges="N2TL TL2S"/>
            <route id="E_W" edges="E2TL TL2W"/>
            <route id="E_N" edges="E2TL TL2N"/>
            <route id="E_S" edges="E2TL TL2S"/>
            <route id="S_W" edges="S2TL TL2W"/>
            <route id="S_N" edges="S2TL TL2N"/>
            <route id="S_E" edges="S2TL TL2E"/>
    <vehicle id="N_E_0" type="standard_car" route="N_E" depart="66.0" departLane="random" departSpeed="10" />
    <vehicle id="W_N_1" type="standard_car" route="W_N" depart="66.0" departLane="random" departSpeed="10" />
    <vehicle id="E_W_2" type="standard_car" route="E_W" depart="78.0" departLane="random" departSpeed="10" />
    <vehicle id="N_S_3" type="standard_car" route="N_S" depart="123.0" departLane="random" departSpeed="10" />
    <vehicle id="S_N_4" type="standard_car" route="S_N" depart="124.0" departLane="random" departSpeed="10" />
    <vehicle id="S_N_5" type="standard_car" route="S_N" depart="132.0" departLane="random" departSpeed="10" />
    <vehicle id="S_N_6" type="standard_car" route="S_N" depart="142.0" departLane="random" departSpeed="10" />
    <vehicle id="S_W_7" type="standard_car" route="S_W" depart="145.0" departLane="random" departSpeed="10" />
    <vehicle id="N_E_8" type="standard_car" route="N_E" depart="146.0" departLane="random" departSpeed="10" />
    <vehicle id="N_S_9" type="standard_car" route="N_S" depart="185.0" departLane="random" departSpeed="10" />
    <vehicle id="N_W_10" type="standard_car" route="N_W" depart="186.0" departLane="random" departSpeed="10" />
    <vehicle id="N_E_11" type="standard_car" route="N_E" depart="188.0" departLane="random" departSpeed="10" />
    <vehicle id="N_S_12" type="standard_car" route="N_S" depart="189.0" departLane="random" departSpeed="10" />
    <vehicle id="W_N_13" type="standard_car" route="W_N" depart="189.0" departLane="random" departSpeed="10" />
    <vehicle id="W_N_14" type="standard_car" route="W_N" depart="202.0" departLane="random" departSpeed="10" />
    <vehicle id="N_W_15" type="standard_car" route="N_W" depart="212.0" departLane="random" departSpeed="10" />
    <vehicle id="W_E_16" type="standard_car" route="W_E" depart="212.0" departLane="random" departSpeed="10" />
    <vehicle id="N_W_17" type="standard_car" route="N_W" depart="215.0" departLane="random" departSpeed="10" />
    <vehicle id="N_S_18" type="standard_car" route="N_S" depart="219.0" departLane="random" departSpeed="10" />
    <vehicle id="N_W_19" type="standard_car" route="N_W" depart="222.0" departLane="random" departSpeed="10" />
    <vehicle id="E_W_20" type="standard_car" route="E_W" depart="243.0" departLane="random" departSpeed="10" />
    <vehicle id="N_E_21" type="standard_car" route="N_E" depart="243.0" departLane="random" departSpeed="10" />
    <vehicle id="W_S_22" type="standard_car" route="W_S" depart="247.0" departLane="random" departSpeed="10" />
    <vehicle id="E_S_23" type="standard_car" route="E_S" depart="250.0" departLane="random" departSpeed="10" />
    <vehicle id="W_S_24" type="standard_car" route="W_S" depart="267.0" departLane="random" departSpeed="10" />
    <vehicle id="E_W_25" type="standard_car" route="E_W" depart="273.0" departLane="random" departSpeed="10" />
    <vehicle id="N_W_26" type="standard_car" route="N_W" depart="277.0" departLane="random" departSpeed="10" />
    <vehicle id="E_S_27" type="standard_car" route="E_S" depart="289.0" departLane="random" departSpeed="10" />
    <vehicle id="E_W_28" type="standard_car" route="E_W" depart="290.0" departLane="random" departSpeed="10" />
    <vehicle id="N_E_29" type="standard_car" route="N_E" depart="292.0" departLane="random" departSpeed="10" />
    <vehicle id="W_E_30" type="standard_car" route="W_E" depart="294.0" departLane="random" departSpeed="10" />
    <vehicle id="W_S_31" type="standard_car" route="W_S" depart="303.0" departLane="random" departSpeed="10" />
    <vehicle id="W_S_32" type="standard_car" route="W_S" depart="308.0" departLane="random" departSpeed="10" />
    <vehicle id="S_W_33" type="standard_car" route="S_W" depart="313.0" departLane="random" departSpeed="10" />
    <vehicle id="S_E_34" type="standard_car" route="S_E" depart="318.0" departLane="random" departSpeed="10" />
    <vehicle id="N_E_35" type="standard_car" route="N_E" depart="322.0" departLane="random" departSpeed="10" />
    <vehicle id="E_S_36" type="standard_car" route="E_S" depart="322.0" departLane="random" departSpeed="10" />
    <vehicle id="N_S_37" type="standard_car" route="N_S" depart="339.0" departLane="random" departSpeed="10" />
    <vehicle id="N_S_38" type="standard_car" route="N_S" depart="342.0" departLane="random" departSpeed="10" />
    <vehicle id="W_S_39" type="standard_car" route="W_S" depart="344.0" departLane="random" departSpeed="10" />
    <vehicle id="W_S_40" type="standard_car" route="W_S" depart="344.0" departLane="random" departSpeed="10" />
    <vehicle id="S_W_41" type="standard_car" route="S_W" depart="352.0" departLane="random" departSpeed="10" />
    <vehicle id="S_N_42" type="standard_car" route="S_N" depart="353.0" departLane="random" departSpeed="10" />
    <vehicle id="S_E_43" type="standard_car" route="S_E" depart="356.0" departLane="random" departSpeed="10" />
    <vehicle id="S_E_44" type="standard_car" route="S_E" depart="364.0" departLane="random" departSpeed="10" />
    <vehicle id="E_S_45" type="standard_car" route="E_S" depart="364.0" departLane="random" departSpeed="10" />
    <vehicle id="W_E_46" type="standard_car" route="W_E" depart="367.0" departLane="random" departSpeed="10" />
    <vehicle id="N_S_47" type="standard_car" route="N_S" depart="370.0" departLane="random" departSpeed="10" />
    <vehicle id="E_W_48" type="standard_car" route="E_W" depart="373.0" departLane="random" departSpeed="10" />
    <vehicle id="E_W_49" type="standard_car" route="E_W" depart="374.0" departLane="random" departSpeed="10" />
    <vehicle id="S_E_50" type="standard_car" route="S_E" depart="377.0" departLane="random" departSpeed="10" />
    <vehicle id="E_W_51" type="standard_car" route="E_W" depart="381.0" departLane="random" departSpeed="10" />
    <vehicle id="S_N_52" type="standard_car" route="S_N" depart="385.0" departLane="random" departSpeed="10" />
    <vehicle id="E_S_53" type="standard_car" route="E_S" depart="387.0" departLane="random" departSpeed="10" />
    <vehicle id="W_N_54" type="standard_car" route="W_N" depart="393.0" departLane="random" departSpeed="10" />
    <vehicle id="N_S_55" type="standard_car" route="N_S" depart="400.0" departLane="random" departSpeed="10" />
    <vehicle id="W_S_56" type="standard_car" route="W_S" depart="402.0" departLane="random" departSpeed="10" />
    <vehicle id="E_W_57" type="standard_car" route="E_W" depart="402.0" departLane="random" departSpeed="10" />
    <vehicle id="N_S_58" type="standard_car" route="N_S" depart="404.0" departLane="random" departSpeed="10" />
    <vehicle id="E_S_59" type="standard_car" route="E_S" depart="406.0" departLane="random" departSpeed="10" />
    <vehicle id="W_S_60" type="standard_car" route="W_S" depart="411.0" departLane="random" departSpeed="10" />
    <vehicle id="N_E_61" type="standard_car" route="N_E" depart="413.0" departLane="random" departSpeed="10" />
    <vehicle id="E_W_62" type="standard_car" route="E_W" depart="417.0" departLane="random" departSpeed="10" />
    <vehicle id="W_N_63" type="standard_car" route="W_N" depart="417.0" departLane="random" departSpeed="10" />
    <vehicle id="N_S_64" type="standard_car" route="N_S" depart="417.0" departLane="random" departSpeed="10" />
    <vehicle id="W_E_65" type="standard_car" route="W_E" depart="420.0" departLane="random" departSpeed="10" />
    <vehicle id="E_N_66" type="standard_car" route="E_N" depart="420.0" departLane="random" departSpeed="10" />
    <vehicle id="W_S_67" type="standard_car" route="W_S" depart="420.0" departLane="random" departSpeed="10" />
    <vehicle id="E_N_68" type="standard_car" route="E_N" depart="421.0" departLane="random" departSpeed="10" />
    <vehicle id="W_S_69" type="standard_car" route="W_S" depart="424.0" departLane="random" departSpeed="10" />
    <vehicle id="E_W_70" type="standard_car" route="E_W" depart="433.0" departLane="random" departSpeed="10" />
    <vehicle id="S_E_71" type="standard_car" route="S_E" depart="433.0" departLane="random" departSpeed="10" />
    <vehicle id="E_S_72" type="standard_car" route="E_S" depart="437.0" departLane="random" departSpeed="10" />
    <vehicle id="E_N_73" type="standard_car" route="E_N" depart="438.0" departLane="random" departSpeed="10" />
    <vehicle id="N_W_74" type="standard_car" route="N_W" depart="444.0" departLane="random" departSpeed="10" />
    <vehicle id="N_E_75" type="standard_car" route="N_E" depart="444.0" departLane="random" departSpeed="10" />
    <vehicle id="N_E_76" type="standard_car" route="N_E" depart="446.0" departLane="random" departSpeed="10" />
    <vehicle id="E_W_77" type="standard_car" route="E_W" depart="449.0" departLane="random" departSpeed="10" />
    <vehicle id="S_W_78" type="standard_car" route="S_W" depart="450.0" departLane="random" departSpeed="10" />
    <vehicle id="W_E_79" type="standard_car" route="W_E" depart="456.0" departLane="random" departSpeed="10" />
    <vehicle id="W_N_80" type="standard_car" route="W_N" depart="457.0" departLane="random" departSpeed="10" />
    <vehicle id="N_W_81" type="standard_car" route="N_W" depart="461.0" departLane="random" departSpeed="10" />
    <vehicle id="W_E_82" type="standard_car" route="W_E" depart="461.0" departLane="random" departSpeed="10" />
    <vehicle id="N_W_83" type="standard_car" route="N_W" depart="464.0" departLane="random" departSpeed="10" />
    <vehicle id="W_S_84" type="standard_car" route="W_S" depart="471.0" departLane="random" departSpeed="10" />
    <vehicle id="W_S_85" type="standard_car" route="W_S" depart="471.0" departLane="random" departSpeed="10" />
    <vehicle id="S_W_86" type="standard_car" route="S_W" depart="472.0" departLane="random" departSpeed="10" />
    <vehicle id="E_N_87" type="standard_car" route="E_N" depart="473.0" departLane="random" departSpeed="10" />
    <vehicle id="S_E_88" type="standard_car" route="S_E" depart="482.0" departLane="random" departSpeed="10" />
    <vehicle id="S_N_89" type="standard_car" route="S_N" depart="483.0" departLane="random" departSpeed="10" />
    <vehicle id="E_W_90" type="standard_car" route="E_W" depart="485.0" departLane="random" departSpeed="10" />
    <vehicle id="E_W_91" type="standard_car" route="E_W" depart="490.0" departLane="random" departSpeed="10" />
    <vehicle id="N_W_92" type="standard_car" route="N_W" depart="496.0" departLane="random" departSpeed="10" />
    <vehicle id="N_E_93" type="standard_car" route="N_E" depart="497.0" departLane="random" departSpeed="10" />
    <vehicle id="S_W_94" type="standard_car" route="S_W" depart="499.0" departLane="random" departSpeed="10" />
    <vehicle id="N_S_95" type="standard_car" route="N_S" depart="501.0" departLane="random" departSpeed="10" />
    <vehicle id="N_S_96" type="standard_car" route="N_S" depart="502.0" departLane="random" departSpeed="10" />
    <vehicle id="N_S_97" type="standard_car" route="N_S" depart="504.0" departLane="random" departSpeed="10" />
    <vehicle id="N_E_98" type="standard_car" route="N_E" depart="504.0" departLane="random" departSpeed="10" />
    <vehicle id="N_S_99" type="standard_car" route="N_S" depart="505.0" departLane="random" departSpeed="10" />
    <vehicle id="S_W_100" type="standard_car" route="S_W" depart="506.0" departLane="random" departSpeed="10" />
    <vehicle id="E_N_101" type="standard_car" route="E_N" depart="507.0" departLane="random" departSpeed="10" />
    <vehicle id="S_N_102" type="standard_car" route="S_N" depart="508.0" departLane="random" departSpeed="10" />
    <vehicle id="S_W_103" type="standard_car" route="S_W" depart="509.0" departLane="random" departSpeed="10" />
    <vehicle id="W_S_104" type="standard_car" route="W_S" depart="509.0" departLane="random" departSpeed="10" />
    <vehicle id="W_N_105" type="standard_car" route="W_N" depart="515.0" departLane="random" departSpeed="10" />
    <vehicle id="W_S_106" type="standard_car" route="W_S" depart="521.0" departLane="random" departSpeed="10" />
    <vehicle id="E_N_107" type="standard_car" route="E_N" depart="523.0" departLane="random" departSpeed="10" />
    <vehicle id="S_E_108" type="standard_car" route="S_E" depart="523.0" departLane="random" departSpeed="10" />
    <vehicle id="W_E_109" type="standard_car" route="W_E" depart="523.0" departLane="random" departSpeed="10" />
    <vehicle id="N_W_110" type="standard_car" route="N_W" depart="524.0" departLane="random" departSpeed="10" />
    <vehicle id="E_S_111" type="standard_car" route="E_S" depart="527.0" departLane="random" departSpeed="10" />
    <vehicle id="N_E_112" type="standard_car" route="N_E" depart="527.0" departLane="random" departSpeed="10" />
    <vehicle id="S_N_113" type="standard_car" route="S_N" depart="532.0" departLane="random" departSpeed="10" />
    <vehicle id="E_S_114" type="standard_car" route="E_S" depart="536.0" departLane="random" departSpeed="10" />
    <vehicle id="S_N_115" type="standard_car" route="S_N" depart="540.0" departLane="random" departSpeed="10" />
    <vehicle id="W_S_116" type="standard_car" route="W_S" depart="541.0" departLane="random" departSpeed="10" />
    <vehicle id="E_N_117" type="standard_car" route="E_N" depart="544.0" departLane="random" departSpeed="10" />
    <vehicle id="S_N_118" type="standard_car" route="S_N" depart="548.0" departLane="random" departSpeed="10" />
    <vehicle id="N_S_119" type="standard_car" route="N_S" depart="551.0" departLane="random" departSpeed="10" />
    <vehicle id="E_W_120" type="standard_car" route="E_W" depart="559.0" departLane="random" departSpeed="10" />
    <vehicle id="S_W_121" type="standard_car" route="S_W" depart="561.0" departLane="random" departSpeed="10" />
    <vehicle id="E_N_122" type="standard_car" route="E_N" depart="561.0" departLane="random" departSpeed="10" />
    <vehicle id="S_W_123" type="standard_car" route="S_W" depart="562.0" departLane="random" departSpeed="10" />
    <vehicle id="E_S_124" type="standard_car" route="E_S" depart="562.0" departLane="random" departSpeed="10" />
    <vehicle id="S_N_125" type="standard_car" route="S_N" depart="565.0" departLane="random" departSpeed="10" />
    <vehicle id="S_E_126" type="standard_car" route="S_E" depart="567.0" departLane="random" departSpeed="10" />
    <vehicle id="W_S_127" type="standard_car" route="W_S" depart="568.0" departLane="random" departSpeed="10" />
    <vehicle id="N_W_128" type="standard_car" route="N_W" depart="568.0" departLane="random" departSpeed="10" />
    <vehicle id="S_N_129" type="standard_car" route="S_N" depart="568.0" departLane="random" departSpeed="10" />
    <vehicle id="S_E_130" type="standard_car" route="S_E" depart="570.0" departLane="random" departSpeed="10" />
    <vehicle id="E_N_131" type="standard_car" route="E_N" depart="571.0" departLane="random" departSpeed="10" />
    <vehicle id="E_N_132" type="standard_car" route="E_N" depart="577.0" departLane="random" departSpeed="10" />
    <vehicle id="N_W_133" type="standard_car" route="N_W" depart="584.0" departLane="random" departSpeed="10" />
    <vehicle id="S_W_134" type="standard_car" route="S_W" depart="584.0" departLane="random" departSpeed="10" />
    <vehicle id="E_W_135" type="standard_car" route="E_W" depart="590.0" departLane="random" departSpeed="10" />
    <vehicle id="E_S_136" type="standard_car" route="E_S" depart="592.0" departLane="random" departSpeed="10" />
    <vehicle id="S_E_137" type="standard_car" route="S_E" depart="593.0" departLane="random" departSpeed="10" />
    <vehicle id="W_S_138" type="standard_car" route="W_S" depart="593.0" departLane="random" departSpeed="10" />
    <vehicle id="S_E_139" type="standard_car" route="S_E" depart="594.0" departLane="random" departSpeed="10" />
    <vehicle id="E_S_140" type="standard_car" route="E_S" depart="594.0" departLane="random" departSpeed="10" />
    <vehicle id="E_N_141" type="standard_car" route="E_N" depart="596.0" departLane="random" departSpeed="10" />
    <vehicle id="E_N_142" type="standard_car" route="E_N" depart="596.0" departLane="random" departSpeed="10" />
    <vehicle id="W_E_143" type="standard_car" route="W_E" depart="599.0" departLane="random" departSpeed="10" />
    <vehicle id="N_E_144" type="standard_car" route="N_E" depart="599.0" departLane="random" departSpeed="10" />
    <vehicle id="N_E_145" type="standard_car" route="N_E" depart="606.0" departLane="random" departSpeed="10" />
    <vehicle id="W_N_146" type="standard_car" route="W_N" depart="608.0" departLane="random" departSpeed="10" />
    <vehicle id="E_W_147" type="standard_car" route="E_W" depart="609.0" departLane="random" departSpeed="10" />
    <vehicle id="W_N_148" type="standard_car" route="W_N" depart="612.0" departLane="random" departSpeed="10" />
    <vehicle id="E_N_149" type="standard_car" route="E_N" depart="614.0" departLane="random" departSpeed="10" />
    <vehicle id="W_S_150" type="standard_car" route="W_S" depart="614.0" departLane="random" departSpeed="10" />
    <vehicle id="S_E_151" type="standard_car" route="S_E" depart="618.0" departLane="random" departSpeed="10" />
    <vehicle id="N_E_152" type="standard_car" route="N_E" depart="623.0" departLane="random" departSpeed="10" />
    <vehicle id="E_S_153" type="standard_car" route="E_S" depart="625.0" departLane="random" departSpeed="10" />
    <vehicle id="S_W_154" type="standard_car" route="S_W" depart="630.0" departLane="random" departSpeed="10" />
    <vehicle id="N_W_155" type="standard_car" route="N_W" depart="631.0" departLane="random" departSpeed="10" />
    <vehicle id="W_N_156" type="standard_car" route="W_N" depart="632.0" departLane="random" departSpeed="10" />
    <vehicle id="W_E_157" type="standard_car" route="W_E" depart="632.0" departLane="random" departSpeed="10" />
    <vehicle id="S_N_158" type="standard_car" route="S_N" depart="634.0" departLane="random" departSpeed="10" />
    <vehicle id="N_W_159" type="standard_car" route="N_W" depart="635.0" departLane="random" departSpeed="10" />
    <vehicle id="E_S_160" type="standard_car" route="E_S" depart="636.0" departLane="random" departSpeed="10" />
    <vehicle id="S_N_161" type="standard_car" route="S_N" depart="640.0" departLane="random" departSpeed="10" />
    <vehicle id="E_W_162" type="standard_car" route="E_W" depart="643.0" departLane="random" departSpeed="10" />
    <vehicle id="W_S_163" type="standard_car" route="W_S" depart="645.0" departLane="random" departSpeed="10" />
    <vehicle id="W_E_164" type="standard_car" route="W_E" depart="645.0" departLane="random" departSpeed="10" />
    <vehicle id="S_W_165" type="standard_car" route="S_W" depart="646.0" departLane="random" departSpeed="10" />
    <vehicle id="S_E_166" type="standard_car" route="S_E" depart="650.0" departLane="random" departSpeed="10" />
    <vehicle id="N_E_167" type="standard_car" route="N_E" depart="653.0" departLane="random" departSpeed="10" />
    <vehicle id="E_S_168" type="standard_car" route="E_S" depart="654.0" departLane="random" departSpeed="10" />
    <vehicle id="N_E_169" type="standard_car" route="N_E" depart="654.0" departLane="random" departSpeed="10" />
    <vehicle id="N_W_170" type="standard_car" route="N_W" depart="663.0" departLane="random" departSpeed="10" />
    <vehicle id="N_W_171" type="standard_car" route="N_W" depart="663.0" departLane="random" departSpeed="10" />
    <vehicle id="S_E_172" type="standard_car" route="S_E" depart="664.0" departLane="random" departSpeed="10" />
    <vehicle id="E_W_173" type="standard_car" route="E_W" depart="664.0" departLane="random" departSpeed="10" />
    <vehicle id="N_S_174" type="standard_car" route="N_S" depart="669.0" departLane="random" departSpeed="10" />
    <vehicle id="W_S_175" type="standard_car" route="W_S" depart="670.0" departLane="random" departSpeed="10" />
    <vehicle id="E_S_176" type="standard_car" route="E_S" depart="672.0" departLane="random" departSpeed="10" />
    <vehicle id="W_N_177" type="standard_car" route="W_N" depart="672.0" departLane="random" departSpeed="10" />
    <vehicle id="W_E_178" type="standard_car" route="W_E" depart="673.0" departLane="random" departSpeed="10" />
    <vehicle id="N_W_179" type="standard_car" route="N_W" depart="683.0" departLane="random" departSpeed="10" />
    <vehicle id="N_W_180" type="standard_car" route="N_W" depart="685.0" departLane="random" departSpeed="10" />
    <vehicle id="E_W_181" type="standard_car" route="E_W" depart="685.0" departLane="random" departSpeed="10" />
    <vehicle id="W_E_182" type="standard_car" route="W_E" depart="686.0" departLane="random" departSpeed="10" />
    <vehicle id="N_S_183" type="standard_car" route="N_S" depart="686.0" departLane="random" departSpeed="10" />
    <vehicle id="S_E_184" type="standard_car" route="S_E" depart="690.0" departLane="random" departSpeed="10" />
    <vehicle id="E_W_185" type="standard_car" route="E_W" depart="693.0" departLane="random" departSpeed="10" />
    <vehicle id="E_N_186" type="standard_car" route="E_N" depart="694.0" departLane="random" departSpeed="10" />
    <vehicle id="E_S_187" type="standard_car" route="E_S" depart="697.0" departLane="random" departSpeed="10" />
    <vehicle id="S_E_188" type="standard_car" route="S_E" depart="698.0" departLane="random" departSpeed="10" />
    <vehicle id="S_E_189" type="standard_car" route="S_E" depart="699.0" departLane="random" departSpeed="10" />
    <vehicle id="E_S_190" type="standard_car" route="E_S" depart="700.0" departLane="random" departSpeed="10" />
    <vehicle id="W_E_191" type="standard_car" route="W_E" depart="701.0" departLane="random" departSpeed="10" />
    <vehicle id="N_S_192" type="standard_car" route="N_S" depart="703.0" departLane="random" departSpeed="10" />
    <vehicle id="W_N_193" type="standard_car" route="W_N" depart="703.0" departLane="random" departSpeed="10" />
    <vehicle id="E_S_194" type="standard_car" route="E_S" depart="704.0" departLane="random" departSpeed="10" />
    <vehicle id="S_E_195" type="standard_car" route="S_E" depart="715.0" departLane="random" departSpeed="10" />
    <vehicle id="E_S_196" type="standard_car" route="E_S" depart="718.0" departLane="random" departSpeed="10" />
    <vehicle id="N_W_197" type="standard_car" route="N_W" depart="722.0" departLane="random" departSpeed="10" />
    <vehicle id="N_E_198" type="standard_car" route="N_E" depart="723.0" departLane="random" departSpeed="10" />
    <vehicle id="W_S_199" type="standard_car" route="W_S" depart="723.0" departLane="random" departSpeed="10" />
    <vehicle id="E_N_200" type="standard_car" route="E_N" depart="723.0" departLane="random" departSpeed="10" />
    <vehicle id="E_N_201" type="standard_car" route="E_N" depart="726.0" departLane="random" departSpeed="10" />
    <vehicle id="N_S_202" type="standard_car" route="N_S" depart="728.0" departLane="random" departSpeed="10" />
    <vehicle id="S_W_203" type="standard_car" route="S_W" depart="731.0" departLane="random" departSpeed="10" />
    <vehicle id="S_N_204" type="standard_car" route="S_N" depart="733.0" departLane="random" departSpeed="10" />
    <vehicle id="W_E_205" type="standard_car" route="W_E" depart="734.0" departLane="random" departSpeed="10" />
    <vehicle id="E_S_206" type="standard_car" route="E_S" depart="735.0" departLane="random" departSpeed="10" />
    <vehicle id="W_E_207" type="standard_car" route="W_E" depart="741.0" departLane="random" departSpeed="10" />
    <vehicle id="E_S_208" type="standard_car" route="E_S" depart="744.0" departLane="random" departSpeed="10" />
    <vehicle id="S_N_209" type="standard_car" route="S_N" depart="747.0" departLane="random" departSpeed="10" />
    <vehicle id="E_W_210" type="standard_car" route="E_W" depart="751.0" departLane="random" departSpeed="10" />
    <vehicle id="N_S_211" type="standard_car" route="N_S" depart="751.0" departLane="random" departSpeed="10" />
    <vehicle id="E_N_212" type="standard_car" route="E_N" depart="754.0" departLane="random" departSpeed="10" />
    <vehicle id="W_E_213" type="standard_car" route="W_E" depart="755.0" departLane="random" departSpeed="10" />
    <vehicle id="E_N_214" type="standard_car" route="E_N" depart="755.0" departLane="random" departSpeed="10" />
    <vehicle id="W_E_215" type="standard_car" route="W_E" depart="757.0" departLane="random" departSpeed="10" />
    <vehicle id="E_S_216" type="standard_car" route="E_S" depart="758.0" departLane="random" departSpeed="10" />
    <vehicle id="W_S_217" type="standard_car" route="W_S" depart="759.0" departLane="random" departSpeed="10" />
    <vehicle id="N_S_218" type="standard_car" route="N_S" depart="760.0" departLane="random" departSpeed="10" />
    <vehicle id="N_W_219" type="standard_car" route="N_W" depart="761.0" departLane="random" departSpeed="10" />
    <vehicle id="N_E_220" type="standard_car" route="N_E" depart="761.0" departLane="random" departSpeed="10" />
    <vehicle id="N_W_221" type="standard_car" route="N_W" depart="762.0" departLane="random" departSpeed="10" />
    <vehicle id="E_W_222" type="standard_car" route="E_W" depart="763.0" departLane="random" departSpeed="10" />
    <vehicle id="W_E_223" type="standard_car" route="W_E" depart="767.0" departLane="random" departSpeed="10" />
    <vehicle id="W_E_224" type="standard_car" route="W_E" depart="768.0" departLane="random" departSpeed="10" />
    <vehicle id="E_W_225" type="standard_car" route="E_W" depart="772.0" departLane="random" departSpeed="10" />
    <vehicle id="S_N_226" type="standard_car" route="S_N" depart="782.0" departLane="random" departSpeed="10" />
    <vehicle id="S_W_227" type="standard_car" route="S_W" depart="782.0" departLane="random" departSpeed="10" />
    <vehicle id="E_S_228" type="standard_car" route="E_S" depart="787.0" departLane="random" departSpeed="10" />
    <vehicle id="E_N_229" type="standard_car" route="E_N" depart="788.0" departLane="random" departSpeed="10" />
    <vehicle id="E_S_230" type="standard_car" route="E_S" depart="789.0" departLane="random" departSpeed="10" />
    <vehicle id="W_E_231" type="standard_car" route="W_E" depart="789.0" departLane="random" departSpeed="10" />
    <vehicle id="N_S_232" type="standard_car" route="N_S" depart="798.0" departLane="random" departSpeed="10" />
    <vehicle id="W_E_233" type="standard_car" route="W_E" depart="800.0" departLane="random" departSpeed="10" />
    <vehicle id="N_E_234" type="standard_car" route="N_E" depart="802.0" departLane="random" departSpeed="10" />
    <vehicle id="E_S_235" type="standard_car" route="E_S" depart="803.0" departLane="random" departSpeed="10" />
    <vehicle id="S_W_236" type="standard_car" route="S_W" depart="803.0" departLane="random" departSpeed="10" />
    <vehicle id="N_E_237" type="standard_car" route="N_E" depart="807.0" departLane="random" departSpeed="10" />
    <vehicle id="N_W_238" type="standard_car" route="N_W" depart="810.0" departLane="random" departSpeed="10" />
    <vehicle id="W_N_239" type="standard_car" route="W_N" depart="814.0" departLane="random" departSpeed="10" />
    <vehicle id="N_E_240" type="standard_car" route="N_E" depart="815.0" departLane="random" departSpeed="10" />
    <vehicle id="E_N_241" type="standard_car" route="E_N" depart="815.0" departLane="random" departSpeed="10" />
    <vehicle id="N_W_242" type="standard_car" route="N_W" depart="818.0" departLane="random" departSpeed="10" />
    <vehicle id="W_S_243" type="standard_car" route="W_S" depart="821.0" departLane="random" departSpeed="10" />
    <vehicle id="N_W_244" type="standard_car" route="N_W" depart="821.0" departLane="random" departSpeed="10" />
    <vehicle id="N_W_245" type="standard_car" route="N_W" depart="822.0" departLane="random" departSpeed="10" />
    <vehicle id="S_W_246" type="standard_car" route="S_W" depart="827.0" departLane="random" departSpeed="10" />
    <vehicle id="S_N_247" type="standard_car" route="S_N" depart="829.0" departLane="random" departSpeed="10" />
    <vehicle id="W_E_248" type="standard_car" route="W_E" depart="830.0" departLane="random" departSpeed="10" />
    <vehicle id="E_W_249" type="standard_car" route="E_W" depart="830.0" departLane="random" departSpeed="10" />
    <vehicle id="S_N_250" type="standard_car" route="S_N" depart="833.0" departLane="random" departSpeed="10" />
    <vehicle id="S_N_251" type="standard_car" route="S_N" depart="833.0" departLane="random" departSpeed="10" />
    <vehicle id="S_W_252" type="standard_car" route="S_W" depart="836.0" departLane="random" departSpeed="10" />
    <vehicle id="W_S_253" type="standard_car" route="W_S" depart="836.0" departLane="random" departSpeed="10" />
    <vehicle id="N_S_254" type="standard_car" route="N_S" depart="836.0" departLane="random" departSpeed="10" />
    <vehicle id="S_E_255" type="standard_car" route="S_E" depart="836.0" departLane="random" departSpeed="10" />
    <vehicle id="E_S_256" type="standard_car" route="E_S" depart="838.0" departLane="random" departSpeed="10" />
    <vehicle id="W_E_257" type="standard_car" route="W_E" depart="840.0" departLane="random" departSpeed="10" />
    <vehicle id="W_S_258" type="standard_car" route="W_S" depart="843.0" departLane="random" departSpeed="10" />
    <vehicle id="E_N_259" type="standard_car" route="E_N" depart="844.0" departLane="random" departSpeed="10" />